




財團法人車輛研究測試中心，提供車輛測試、檢測、驗證、外銷、先進系統研發、試車場等服務。















 Automotive Research Testing Center 














首頁技術能量電腦輔助工程分析


實車測試
環保能源
燈光檢測
電磁相容
實車碰撞
機動車輛噪音檢測
環境測試
疲勞耐久
車輛規格檢測
安全檢測
電腦輔助工程分析
零組件檢測
校正
全規格充電站







技術能量
Technical Capability


實車測試
環保能源
燈光檢測
電磁相容
實車碰撞
機動車輛噪音檢測
環境測試
疲勞耐久
車輛規格檢測
安全檢測
電腦輔助工程分析
零組件檢測
校正
全規格充電站



瞭解試車場所有項目?
瞭解所有實驗設備?




電腦輔助工程分析

實驗室介紹
影片照片
下載





實驗室說明
工程分析中心致力於運用電腦輔助工程分析技術(CAE，Computer Aided Engineering)，以建立電腦數值分析模型快速運算產品性能之虛擬測試方式，針對車輛領域各類車輛之整車、系統及零組件，協助產業進行結構、機構與熱流等產品性能分析改良與測試比對驗證，包括產品靜動態強度、疲勞耐久、振動與舒適、擠壓與衝擊、機構運動及熱流及電磁等。工程分析中心歷年來已建置各類車輛產品之協同設計分析、性能分析測試比對驗證、偵錯改善優化、技術訓練與技術移轉等技術整合服務能量，可協助產業大幅提升產品設計開發流程之品質與效能。
設備項目

CAE結構\機構計算軟體
    LS-DYNA、ABAQUS、ANSYS、HyperWorks\Optistruct、Radioss、Motion

CFD熱流計算軟體
    ANSYS\Fluent、SC\TETRA

FEA前後處理軟體
    HyperWorks\HyperMesh、LS\PrePost、Oasys\primer、MSC\Patran

專用計算軟體
    TNO\MADYMO、ETA\VPG、MSC\Fatigue

FEA優化設計軟體
    HyperWorks\Optistruct、HyperStudy

CAD繪圖軟體
    AutoCAD、Inventor、SolidWorks、Pro\Engineer



服務項目
車輛及零組件產品CAE分析
    協同設計開發，配合執行CAE分析驗證與偵錯改良。

工程顧問諮詢
    提供產品開發CAE分析與偵錯改善技術顧問諮詢服務。

技術移轉
    協助導入CAE分析技術。

教育訓練
    提供CAE技術教育訓練。


認可單位
交通部
可執行檢測項目
車輛安全檢測基準-55
相關實驗室
碰撞實驗室、安全測試實驗室、疲勞耐久實驗室、試車場、振動噪音實驗室、環境測試驗室、零組件實驗室、電磁相容實驗室
未來發展
各類產品之多物理量耦合分析技術
聯絡窗口
毛慶平 (ext.3310)maocp@artc.org.tw









隱私權保護聲明
版權聲明


service@artc.org.tw 
+886-4-781-1222

@財團法人車輛研究測試中心 All Rights Reserved




技術能量
技術能量列表
試車場
國內授權法規檢測
外銷驗證服務


研究發展
研究發展介紹
智慧安全
電動節能
車輛聯網


客戶服務
可授權專利
可移轉技術
知識庫
教育訓練
檔案下載
常見問答
網網相連
應用系統連結
法規認證產品查詢
聯絡我們


關於ARTC
認識ARTC
ARTC大事紀
菁英招募
交通位置地圖
ARTC行動辦公室


資訊公告
最新消息
產學研合作
ecHo通訊電子報
車輛研測專刊
ARTC資訊下載
媒體中心

知識服務
教育訓練
知識庫
ecHo電子報
車輛研測專刊
論文
車輛知識媒體專題報導
電動車安全入門手冊
防禦駕駛
電動車
QA集
車輛小博士
車輛產業概況




財團法人車輛研究測試中心
service@artc.org.tw 
+886-4-781-1222
50544 彰化縣鹿港鎮鹿工南七路6號








隱私權保護聲明
版權聲明
聯絡我們
電話：+886-4-781-1222
地址：50544 彰化縣鹿港鎮鹿工南七路6號

© 2016 ARTC All Right Recerved.  Design by Creatop.












CAE / 計算機輔助工程: Siemens PLM Software































































Skip directly to content











CAE
Computer-Aided Engineering








Tools




Site Identifier

Siemens PLM Software

Close site identifier layer







Language
簡體中文

Close language layer







Site Explorer
網站瀏覽

Close site explorer








社區





商店





聯繫人

Close Contact Layer
聯繫 Siemens PLM Software

上海市楊浦區大連路500號西門子上海中心B幢4-7樓上海市 中國 200082
(v) 400 092 0665





聯繫我們
請留下您的寶貴意見









Search
查詢關鍵字

查找










You are here:

首頁


PLM 軟件是什麼？


CAE / 計算機輔助工程










CAE / 計算機輔助工程





計算機輔助工程 (CAE) 是利用計算機軟件對性能進行仿真，從而改善產品設計或協助解決各個行業的工程問題。 它涵蓋了產品、流程和製造工具的仿真、驗證和優化。一個典型的 CAE 過程包括預處理、解算和後處理步驟。 在預處理階段，工程師採用施加載荷或約束的形式，對幾何體（或系統表示形式）和設計的物理屬性以及環境進行建模。 接著，使用基礎物理場的適當數學公式對模型求解。 在後處理階段，將結果呈現給工程師以供查看。CAE 應用程序支持多種工程學科或現象，包括：使用有限元分析 (FEA) 對組件和裝配進行應力和動力學分析使用計算流體力學 (CFD) 進行熱和流體分析對機構進行運動學和動力學分析（多體動力學）使用 FEA 或邊界元方法 (BEM) 進行聲學分析面向多領域機電一體化系統設計的 1D CAE 或機電一體化系統仿真機械事件仿真 (MES)控制系統分析對鑄造、模塑和衝壓成型等製造流程進行仿真優化產品或流程一些工程問題需要對多個現象進行仿真來表示基礎物理場。 可解決此類問題的 CAE 應用程序通常被稱為多物理場解決方案。CAE 的優點CAE 的優點包括降低了產品開發成本並縮短了開發時間，同時提高了產品質量和耐用性。可以根據設計對性能的影響來制定設計決策。利用計算機仿真而非物理樣機測試，可以對設計進行評估和優化，從而節省時間和金錢。CAE 可以在開發過程的早期洞察性能表現，此時更改設計成本較低。CAE 可以幫助工程團隊管理風險，並瞭解他們的設計對性能的影響。集成式 CAE 數據和過程管理可將有效利用性能洞察力和改進設計的能力拓展到更大的範圍。通過查明和消除潛在的問題，減少使用保修服務的幾率。 在正確集成到產品和製造開發後，CAE 能夠支持在早期解決問題，這樣可以大大降低與產品生命周期相關的成本。CAE 軟件下麵舉例說明瞭 CAE 軟件應用：


Simcenter 3D 是針對 3D CAE 的統一、可擴展、開放且可伸縮的環境，而且可以連接到設計、1D 仿真、測試和數據管理環境。 Simcenter 將一流幾何體編輯、關聯仿真建模以及融入行業專業知識的多學科解決方案完美結合，為您加快仿真流程。 Simcenter 3D 集成了快速準確的解算器，它們支持結構分析、聲學分析、流體分析、熱學分析、運動分析、複合材料分析以及優化和多物理場仿真。


NX Nastran 是一個有限元解算程序，用於應力、振動、結構損壞/耐久性、熱傳遞、噪音/聲學以及顫動/氣動彈性學分析。


STAR-CCM+ 是一套獨立仿真解決方案，用於仿真計算流體動力學 (CFD)、計算固體力學 (CSM)、熱傳遞、顆粒動力學、反應流體、電化學、電磁學、聲學和流變學。 STAR-CCM+ 通過單一集成式用戶界面和自動化工作流程提供準確高效的仿真技術。 這樣便於分析和探究複雜現實問題。


LMS Virtual.Lab 是一套集成的有限元、邊界元和多體建模軟件，可對機電一體化系統的實際性能進行仿真。 它可以幫助您快速構建複雜的模型，精確地分析結構完整性、噪音、聲音、振動、測試結果的相關性、系統動力學和疲勞耐久性性能，從而能夠在建立原型的早期進行優化設計。


LMS Samtech包含Samcef有限元分析求解器，用於對機械系統進行結構性能仿真。 LMS Samech針對特定應用領域做了專業開發，如風力發電機整機動力學仿真、轉子動力學、非線性結構與熱分析和複合材料結構分析等，以滿足不同領域的精確仿真需求。 Samcef求解器可以實現非線性有限元與多體動力學的耦合分析。 LMS Samtech還有一個開放的CAE工程集成平臺，用於實現航空航天產品結構分析的流程管理。LMS Samtech


LMS Imagine.Lab 可幫助您在整個設計周期中推動虛擬化智能系統設計。 它提供了所有必要的工具來創建、管理和使用模型及數據，滿足了各種基於模型的系統工程需求。 它可有效地應對與機電一體化系統仿真有關的具體挑戰。


HEEDS 提供高效且易於使用的設計探索框架。 通過與您的當前設計和仿真工具集成，可輕鬆實現工作流程自動化。 HEEDS 自動探索設計空間來快速找出符合您的目標和約束的解決方案，例如降低產品成本，同時保持應力低於可接受限值。


Femap 是一款獨立於 CAD、解算器中性且基於 Windows 的前處理器和後處理器 ，用於高級工程 FEA。 它為工程師和分析人員提供了一個 FEA 建模解決方案，以便以合理的成本輕鬆、準確地完成最複雜的任務。


Solid Edge Solid Edge 仿真是一個嵌入式FEA工具，供設計工程師在Solid Edge環境中以數字化方式驗證零件和裝配設計。Solid Edge仿真基於經過證明的Femap有限元建模技術，大幅減少了對物理原型的需要，從而減少了物料和測試成本，同時節約了設計時間。


CAE軟件開發人員把下列軟件組件用作其應用軟件的基礎：


D-Cubed Components 是六個軟件庫，軟件開發人員可以通過許可將其集成到自己的產品中。這些軟件庫的功能包括：參數草圖繪製、零件與裝配設計、運動仿真、衝突檢測、間隙測量以及隱藏線可視化。


Parasolid 是三維幾何建模組件軟件，使Parasolid產品用戶能夠對複雜零件和裝配進行建模，並且是數百種不同CAD、CAM和CAE應用軟件的幾何引擎。





Related
Page tools


Decrease text size
Increase text size
							Text Size
						

Recommend
Share
Feed
Print












瞭解我們的 CAE 解決方案CAE 是產品生命周期管理 (PLM) 的一個組成部分。 與計算機輔助設計 (CAD)、計算機輔助製造 (CAM)、數字化製造、產品數據管理 (PDM) 和物理原型測試結合使用，可針對適用性、可靠性和盈利能力對整個產品生命周期進行優化，以實現預測工程分析




瞭解類似企業如何在其產品開發過程中使用 CAE


Kässbohrer Transport Technik Case Study

Kässbohrer Transport Technik Case Study

Volgograd Manufacturing Company Case Study

Volgograd Manufacturing Company Case Study

Pentair Case Study



更多案例研究





行業解決方案

行業方法
航空航天及國防行業解決方案
汽車及交通運輸行業解決方案
消費產品和零售業解決方案
電子和半導體行業解決方案
能源及公共事業行業解決方案
工業機械與重型裝備行業解決方案
船舶行業解決方案
醫療器械和醫葯解決方案





更多資源

Simcenter 手冊
Simcenter 3D產品手冊
NX Nastran Brochure
LMS Imagine.Lab Amesim機電一體化系統仿真平臺
LMS Virtual.Lab Solutions Guide
Femap 概述
Solid Edge Simulation
D-Cubed Components
Parasolid Brochure
CAE 博客文章
在 Siemens PLM 社區中加入 CAE 相關對話













Close share layer

Share this page



Share this page through any of the following channels.
Bookmarking Sites

Delicious
Yigg
Link-a-Gogo
Mister Wong
OneView
StumbleUpon
faves

Communities

Facebook
Xing
MySpace
Friendfeed
LinkedIn

News

Digg
Newsvine

Blogs & Microblogs

Twitter






































 



什麼是電腦輔助工程分析? | Yahoo奇摩知識+




















 









   ⌂首頁信箱新聞股市名人娛樂氣象運動App下載購物中心商城拍賣更多⋁知識+汽車機車電影字典遊戲旅遊理財房地產時尚美妝折扣城   Yahoo 奇摩知識+                        👤 登入    ✉ 信箱     ⚙ 服務說明    帳號資料 服務說明 意見回報        
















Yahoo奇摩知識+ 首頁











所有分類
 
健康
 
商業與財經
 
娛樂與音樂
 
家居與園藝
 
家庭與人際關係
 
寵物
 
懷孕與育兒
 
政治與政府
 
教育與參考
 
新聞與活動
 
旅遊
 
汽車與交通
 
消費電子產品
 
環境
 
社會科學
 
社會與文化
 
科學
 
美容與造型
 
藝術與人文
 
遊戲與休閒活動
 
運動
 
電腦與網際網路
 
食品與飲料
 
餐廳與小吃
 





世界Yahoo 








阿根廷





澳洲





巴西





加拿大





法國





德國





印度





印尼





義大利





馬來西亞





墨西哥







紐西蘭





菲律賓





魁北克





新加坡





香港





西班牙





泰國





英國與愛爾蘭





美國





越南





西班牙文







關於





關於 Yahoo奇摩知識+
社群指南
排行榜
點數與等級
部落格
如何安全地使用 Yahoo奇摩

 








 電腦與網際網路

 軟體


 看另一則問題 




 


            什麼是電腦輔助工程分析?
        


什麼是電腦輔助工程分析?? 

解釋  運用 

舉例子(MATLAB之類的) 

詳細!!





 
追蹤 


 
 2 個解答 
2


檢舉不當使用









您確定要刪除此解答嗎？
是
否












 









抱歉，似乎發生一些問題。



Trending Now





 

解答














最佳解答: 
             電腦輔助工程分析教學 

本教材以知名的CAD/CAE 
軟體Pro/E及Pro/M之整合模式為基礎，並配合範例深入淺出地介紹電腦輔助工程分析(CAE)的原理與應用。內容涵蓋機械設計上常見的工程問題，例如機構運動分析、干涉檢查、結構強度、振動分析、熱傳、耦合問題、最佳化設計等。希望藉此能使學生對CAE的應用有清晰而完整的認識，進而提昇學生解決實務問題的能力。 
課程內容簡介  
運動模組簡介： Pro/MECHANICA MOTION (簡稱Pro/M運動)模組是一虛擬原型(virtual prototyping)工具用來設計一機構。與其建造及測試一原型，你可以使用運動模組以部分的成本和時間來測試與調整一機構設計。  
整合模式單擺： 本練習概述Pro/MECHANICA MOTION (簡稱Pro/M運動)模組解決一工程問題的過程，本練習的目的是介紹你在往後課程中將學到的概念和任務，並給你課後一個討論的起點。如果你完成本練習而感到有一點困惑，請不要如此，因為在本練習你僅輕輕滑過運動模組的錶面。  
整合模式割草機： 在這個旅程，你的目標是設計一個動態平衡的割草機驅動鏈，如下圖所示。一個草坪割草機驅動鏈包含一單活塞引擎往復運動平行於地面，這活塞驅動一個曲軸其上連接切削刀片和一隻冷卻風扇，當因往復運動的活塞引起週期性的軸承負載被最小化時，這個驅動鏈被視為處於動態平衡。  
運動模組專題： 探討在一個四連桿中各接頭的反作用力，並附加一彈簧以最小化其中一接頭的最大反作用力。將不給逐步的指導。  
結構模組簡介： Pro/MECHANICA STRUCTURE (簡稱Pro/M結構)模組是一包括多門學科的電腦輔助工程(CAE)分析工具，使你能分析和最佳化有關結構、熱傳和動態需求的設計。Pro/M的目標是幫助你在最短時間內找到最好的設計。  
整合模式支架： 當你工作於整合模式Pro/MECHANICA STRUCTURE (簡稱Pro/M結構)模組，你利用Pro/ENGINEER (簡稱Pro/E)使用者介面進行分析和最佳化設計。雖然你不需要任何使用Pro/M結構模組的經驗來完成本練習，但是你必須有紮實的Pro/E軟體使用知識、零件建立技巧及機械工程實務，你至少必須上過Pro/E的課程。  
理想化與模型： 理想化(idealizations)是模型幾何的數學近似值，Pro/M用它來模擬一設計的行為。  
在分析期間，Pro/M在模型的每個理想化中計算應力和其他物理量。在整合模式，這些理想化是位於幕後，換句話，對使用者來說他們是透明的。無論如何，Pro/M中有許多不同類型的理想化可資利用，瞭解它們是什麼和它們如何影響你由任何分析得到的結果是很重要的。  
模型製作專題： 本節是一系列零件產生的練習，且提供它們較少的指導。你將必須引用前面章節所學到的技巧和概念來完成這些練習。 

你將只給零件的尺寸和這練習的目標，請隨時參考前面的練習，詢問你的隊友或指導員任何問題。在本節中沒有捉弄的練習，你需要完成這些練習的所有工具已在前面練習中提供給你。 

性質、拘束與負載： 性質：這組練習將使用你在前一節建造的小模型繼續擴充你的工具箱。 
拘束：拘束和負載定義真實世界的環境你預期模型將遭遇到。在分析和敏感度研究期間Pro/M使用這資訊來模擬模型的行為，而且模型的最佳形狀和質量也將取決於你定義的拘束和負載。  
負載：為了Pro/M執行大多數類型的分析，你必須至少在模型一區域加負載。Pro/M提供廣泛多樣的負載類型供你選擇。  

分析與結果： 
 直到目前，你已學過如何藉定義性質、模型邊界條件、和負載來準備你的零件作分析。現在你將定義一分析、執行它、及顯示結果。  
敏感度與最佳化： 截至目前，你已學習就零件目前的設計如何模擬和分析一零件。瞭解你的零件如何作用可能也是重要的，當你變化模型的不同面向以降低重量、應力、或其它的目標以導致一最佳設計。  
結構專題： 這些專題是為幫助你測量基本Pro/M結構模組之知識所設計的練習。這些練習是一些工程問題描述，包含一些如何模擬它們的簡短提示。  
進階功能： 在本節你將學習如何模擬一含有點焊接的組件。一點焊接(spot weld)是由一樑熔化到以焊接直徑定義的一區域錶面所構成。你可以使點焊接來模擬鉚接、焊接結構、及螺栓連結。 

當你使用點焊接，你指定焊接直徑和材料兩者，焊接長度是由每一錶面上熔化的位置所決定。點焊接可用於零件模式和組件模式兩者，但陣列和零長度焊接並不被支援。 




 參考資料： 
 http://elearning.stut.edu.tw/mechanical/CAE/ 


baby
 · 10 年前 





0
真讚



0
真遜





檢舉不當使用


意見





 




新增意見











送出












 · 剛才不久




















 運動分析 運動博奕投註預測分析,台灣最好的運動彩券投註分析網站,唯一擁有台灣最強的日本職棒預測分析!輕鬆閱讀所有熱門的分析文章和運動彩券相關部落格。多次預測達100%!NBA籃球,日本職棒,美國大聯盟,中華職棒,北京奧運以及運動彩券相關運動最新資訊與賽事分析。本站預測推薦的，不保證一定球賽最後的結果，主要免費提供給大家參考合牌。提供您專業運動分析 請看詳細資料做參考





 匿名使用者 
 · 3 年前 




0
真讚



0
真遜





檢舉不當使用


意見







 




新增意見











送出












 · 剛才不久















 

檢舉不當使用

 我認為此問題違反社群指南 
聊天或爭嚷、成人內容、垃圾信、侮辱其他成員、顯示更多
我認為此問題違反服務條款
對未成年兒童有害、帶有暴力或脅迫意味、騷擾或侵犯隱私權、假冒或不實陳述、欺詐或網路釣魚、 顯示更多

其他詳細資料

若您認為自己的智慧財產權受到侵害，並想提出申訴，請參閱我們的版權/智慧財產權政策

檢舉不當使用


取消




檢舉不當使用

 我認為此解答違反社群規範 
聊天或爭嚷、成人內容、垃圾信、侮辱其他成員、顯示更多
我認為此解答違反服務條款
對未成年兒童有害、帶有暴力或脅迫意味、騷擾或侵犯隱私權、假冒或不實陳述、欺詐或網路釣魚、 顯示更多

其他詳細資料

若您認為自己的智慧財產權受到侵害，並想提出申訴，請參閱我們的版權/智慧財產權政策

檢舉不當使用


取消




檢舉不當使用

 我認為此意見違反社群規範 
聊天或爭嚷、成人內容、垃圾信、侮辱其他成員、顯示更多
我認為此意見違反服務條款
對未成年兒童有害、帶有暴力或脅迫意味、騷擾或侵犯隱私權、假冒或不實陳述、欺詐或網路釣魚、 顯示更多

其他詳細資料

若您認為自己的智慧財產權受到侵害，並想提出申訴，請參閱我們的版權/智慧財產權政策

檢舉不當使用


取消



 

你可能對以下搜尋感興趣：


海外代購超輕鬆

防毒軟體為您抵擋病毒攻擊

揉捏按壓在家輕鬆舒緩疲勞

解決你的網頁設計問題












發問問題
通常可在幾分鐘內獲得解答！







展開»






詳細資料



詳細資料






現有問題




更多





請多詳述您的問題
上傳處理中




上傳失敗。 請上傳大於 100x100 像素的檔案
目前發生問題，請再試一次。
您只能上傳 PNG、JPG 或 JPEG 等類型的檔案。
您只能上傳 3GP、3GPP、MP4、MOV、AVI、MPG、MPEG 或 RM 等類型的檔案。
您只能上傳不超過 5 MB 的相片。
您只能上傳不超過 600 MB 的影片。
您只能上傳相片 (png, jpg, jpeg) 或影片 (3gp, 3gpp, mp4, mov, avi, mpg, mpeg, rm)。
您只能上傳相片或影片。
影片不應超過 <b>600mb/5 分鐘</b>
相片不應超過 <b>5mb</b>
影片不應超過 <b>600mb/5 分鐘</b>相片不應超過 <b>5mb</b>
  







解答問題


點樣阻止酒精對記憶的損害？



 

我想請問一下~~我現在想買新電腦~~
想同時安裝XP和WIN7~兩種系統軟體~~
電腦安裝硬體如下~~我應該大部份都使用WIN7~~偶爾會用XP~~請問電腦可以裝嘛??會跑的順嘛??



 

日本對遊戲軟件有分級制度嗎？



 

日本對映像軟件有分級制度嗎？



 


發燒問題




男人陽虛怎麼辦???

                  4 個解答
              

 

電腦看影片為何會斷斷續續的?

                  5 個解答
              

 

WELCOME色情視窗關不掉 求解QQ?

                  4 個解答
              

 
更多問題





我的電腦一直跳出新視窗?

             4 個解答
         

 

電腦桌面東西完全不見 工作管理員也無法開啟 但右鍵可以使用 求好心人幫忙解決?

             4 個解答
         

 

20170606
求line禮品小舖金頭腦送禮達人第2彈解答~~😀😀?

             8 個解答
         

 

  








服務條款


隱私權


RSS

























電腦輔助工程 - MBA智庫百科









 
 















電腦輔助工程

出自 MBA智庫百科(http://wiki.mbalib.com/)


電腦輔助工程（Computer Aided Engineering，CAE）

目錄

1 電腦輔助工程概述
2 電腦輔助工程的內容
3 電腦輔助工程的功能及用途
4 電腦輔助工程的關鍵技術
5 電腦輔助工程系統
6 電腦輔助工程的現狀與發展
7 電腦輔助工程案例分析

7.1 案例一:CAE技術在鋼鐵工業中的應用[1]


8 參考文獻


[編輯]電腦輔助工程概述
　　電腦輔助工程（Computer Aided Engineering，CAE）技術的提出就是要把工程（生產）的各個環節有機地組織起來，其關鍵就是將有關的信息集成，使其產生並存在於工程（產品）的整個生命周期。因此，CAE系統是一個包括了相關人員、技術、經營管理及信息流和物流的有機集成且優化運行的複雜的系統。
　　隨著電腦技術及應用的迅速發展，特別是大規模、超大規模集成電路和微型電腦的出現，使電腦圖形學（Computer Graphics，CG）、電腦輔助設計（Computer Aided Design，CAD）與電腦輔助製造（Computer Aided Manufacturing，CAM）等新技術得以十分迅猛的發展。CAD、CAM已經在電子、造船、航空、航天、機械、建築、汽車等各個領域中得到了廣泛的應用，成為最具有生產潛力的工具，展示了光明的前景，取得了巨大的經濟效益。
　　電腦技術的迅速發展還推動了現代企業管理的發展，企業管理藉助於管理信息系統的支持與幫助，利用信息控制國民經濟部門或企業的活動，做出科學的決策或調度，從而提高管理水平與效益。企業生產經營活動的各個環節，從工程的立項、簽約、設計、施工（生產），一直到交工（交貨），是一個連續的過程，有機的整體。

[編輯]電腦輔助工程的內容
　　電腦輔助工程是指電腦在現代生產領域，特別是生產製造業中的應用，主要包括電腦輔助設計、電腦輔助製造和電腦集成製造系統等內容。
　　電腦輔助設計（CAD）
　　在如今的工業製造領域，設計人員可以在電腦的幫助下繪製各種類型的工程圖紙，併在顯示器上看到動態的三維立體圖後，直接修改設計圖稿，極大地提高了繪圖的質量和效率。此外，設計人員還可以通過工程分析和模擬測試等方法，利用電腦進行邏輯模擬，從而代替產品的測試模型（樣機），降低產品試製成本，縮短產品設計周期。
　　目前，CAD技術已經廣泛應用於機械、電子、航空、船舶、汽車、紡織、服裝、化工以及建築等行業，成為現代電腦應用中最為活躍的技術領域。
　　電腦輔助製造（CAM）
　　這是一種利用電腦控制設備完成產品製造的技術。例如，20世紀50年代出現的數控機床便是在CAM技術的指導下，將專用電腦和機床相結合後的產物。
　　藉助CAM技術，在生產零件時只需使用編程語言對工件的形狀和設備的運行進行描述後，便可以通過電腦生成包含加工參數（如走刀速度和切削深度）的數控加工程式，並以此來代替人工控制機床的操作。這樣不僅提高產品質量和效率，還降低生產難度，在批量小、品種多、零件形狀複雜的飛機、輪船等製造業中備受歡迎。
　　電腦集成製造系統（CIMS）
　　CIMS是集設計、製造、管理三大功能於一體的現代化工廠生產系統，具有生產效率高、生產周期短等特點，是20世紀製造工業的主要生產模式。在現代化的企業管理中，CIMS的目標是將企業內部所有環節和各個層次的人員全都用電腦網路連接起來，形成一個能夠協調統一和高速運行的製造系統。

[編輯]電腦輔助工程的功能及用途
　　CAE技術是將工程的各個環節有機地組織起來，應用電腦技術、現代管理技術、信息科學技術等科學技術的成功結合，實現全過程的科學化、信息化管理，以取得良好的經濟效益和優良的工程質量。
　　CAE的功能結構應包含電腦輔助工程計劃管理、電腦輔助工程設計、電腦輔助工程施工管理及工程文檔管理等項。
　　電腦輔助工程計劃管理包括工程項目的可行性論證、標書、成本與報價、工程計劃進度、各子項工程計劃與進度、預決算報告等。
　　電腦輔助工程設計包括工程的設計指標、工程設計的有關參數及CAD系統，在CAD系統中應強調設計人員的主導作用，同時註重電腦所提供的支撐與幫助，以在最短的時間內拿出最優的設計方案來。同時，還要註意設計數據的提取和保存，以使其有效地服務於工程的整個生命周期。
　　電腦輔助施工管理包括工程進度、工程質量、施工安全、施工現場、施工人員、物料供給等方面的管理、控制和調度。它涉及到工程管理學、運籌學、統計學、質量控制等科學技術。當然，管理人員的自身素質是管理工作中的決定因素，必須十分重視管理人員在管理環節中的作用。
　　CAE技術可廣泛地應用於國民經濟的許多領域，像各種工業建設項目，例如工廠的建設，公路、鐵路、橋梁和隧道的建設；像大型工程項目，例如電站、水壩、水庫、船台的建造，船舶及港口的建造和民用建築等。它還可應用於企業生產過程之中，及其它的企業經營、管理控制過程中，例如工廠的生產過程、公司的商業活動等。

[編輯]電腦輔助工程的關鍵技術
　　CAE技術是一門涉及許多領域的多學科綜合技術，其關鍵技術有以下幾個方面。
　　（1）電腦圖形技術
　　CAE系統中表達信息的主要形式是圖形，特別是工程圖。在CAE運行的過程中，用戶與電腦之間的信息交流是非常重要的。交流的主要手段之一是電腦圖形。所以，電腦圖形技術是CAE系統的基礎和主要組成部分。
　　（2）三維實體造型
　　工程設計項目和機械產品都是三維空間的形體。在設計過程中，設計人員構思形成的也是三維形體。CAE技術中的三維實體造型就是在電腦內建立三維形體的幾何模型，記錄下該形體的點、棱邊、面的幾何形狀及尺寸，以及各點、邊、面間的連接關係。
　　（3）數據交換技術
　　CAE系統中的各個子系統，個個功能模塊都是系統有機的組成部分，它們都應有統一的幾類數據表示格式，是不同的子系統間、不同模塊間的數據交換順利進行，充分發揮應用軟體的效益，而且應具有較強的系統可擴展性和軟體的可再用性，以提高CAE系統的生產率。各種不同的CAE系統之間為了信息交換及資源共用的目的，也應建立CAE系統軟體均應遵守的數據交換規範。目前，國際上通用的標準有GKS、IGES、PDES、STEP等。
　　（4）工程數據管理技術
　　CAE系統中生成的幾何與拓撲數據，工程機械，工具的性能、數量、狀態，原材料的性能、數量、存放地點和價格，工藝數據和施工規範等數據必須通過電腦存儲、讀取、處理和傳送。這些數據的有效組織和管理是建造CAE系統的又一關鍵技術，是CAE系統集成的核心。採用資料庫管理系統（DBMS）對所產生的數據進行管理是最好的技術手段。
　　（5）管理信息系統
　　工程管理的成敗，取決於能否做出有效的決策。一定的管理方法和管理手段是一定社會生產力發展水平的產物。市場經濟環境中企業的競爭不僅是人才與技術的競爭，而且是管理水平、經營方針的競爭，是管理決策的競爭。決策的依據和出發點取決於信息的質量。所以，建立一個由人和電腦等組成的能進行信息收集、傳輸、加工、保存、維護和使用的管理信息系統，有效地利用信息控制企業活動是CAE系統具有戰略意義、事關全局的一環。工程的整個過程歸根結蒂是管理過程，工程的質量與效益在很大程度上取決於管理。

[編輯]電腦輔助工程系統
　　CAE系統是一個包括工程各個環節的集成系統，是電腦應用的一個重要方面。從系統結構上看，大致可分為兩類：集中式系統和工作站網路系統。
　　在集中式系統中，視系統的需要配置一臺中、小型機或大型機，構造成CAE系統的信息中心和指揮中心，其各個工程環節的分系統可以是該中心電腦的終端機、工作站，甚至是小型機，它們與中心機通過網路連接。這種系統的中心機功能較強，是信息存儲的中心，也是信息傳送、處理的中心。這樣的系統一次性投資較大，使用起來靈活性不強。
　　採用工作站網路來構造CAE系統，各工程分系統分別設置一臺或多台工作站，各自實現所擔負的功能，完成所分配的工作，通過網路來進行信息的交換。這樣的系統造價較低，而且具有較強的靈活性，適合於工程項目複雜多變的特點。

[編輯]電腦輔助工程的現狀與發展
　　1、國外CAE技術概況
　　電腦輔助工程的特點是以工程和科學問題為背景，建立計算模型併進行電腦模擬分析。一方面，CAE技術的應用，使許多過去受條件限制無法分析的複雜問題，通過電腦數值模擬得到滿意的解答；另一方面，電腦輔助分析使大量繁雜的工程分析問題簡單化，使
　　複雜的過程層次化，節省了大量的時間，避免了低水平重覆的工作，使工程分析更快、更準確。在產品的設計、分析、新產品的開發等方面發揮了重要作用，同時CAE這一新興的數值模擬分析技術在國外得到了迅猛發展，技術的發展又推動了許多相關的基礎學科和應用科學的進步。
　　在影響電腦輔助工程技術發展的諸多因素中，人才、電腦硬體和分析軟體是三個最主要的方面。現代電腦技術的飛速發展，已經為CAE技術奠定了良好的硬體基礎。多年來，重視CAE技術人才的培養和分析軟體的開發和推廣應用，發達國家不僅在科技界而且在工程界已經具有一支較強的掌握CAE技術的人才隊伍，同時在分析軟體的開發和應用方面也達到了較高水平。
　　美國於1998年成立了工程電腦模擬和模擬學會(Computer Modeling and Simulation in Engineering)，其它國家也成立了類似的學術組織。各國都在投入大量的人力和物力，加快人才的培養。正是各行業中大批掌握CAE技術的科技隊伍推動了CAE技術的研究和工業化應用，CAE技術在國外已經廣泛應用於不同領域的科學研究，並普遍應用於實際工程問題，在解決許多複雜的工程分析方面發揮了重要作用。
　　國外對CAE技術的開發和應用真正得到高速的發展和普遍應用則是近年來的事。這一方面主要得益於電腦在高速化和小型化方面取得的成就，另一方面則有賴於通用分析軟體的推出和完善。早期的CAE分析軟體一般都是基於大型電腦和工作站開發的，近年來PC機性能的提高，使採用PC機進行分析成為可能，促使許多CAE軟體被移植到PC機上應用。這顯然對CAE技術的推廣應用極為有利。
　　衡量CAE技術水平的重要標誌之一是分析軟體的開發和應用。目前，一些發達國家在這方面已達到了較高的水平，僅以有限元分析軟體為例，國際上不少先進的大型通用有限元計算分析軟體的開發已達到較成熟的階段並已商品化，如ABAQUS、ANSYS、NASTRAN等。這些軟體具有良好的前後處理界面，靜態和動態過程分析以及線性和非線性分析等多種強大的功能，都通過了各種不同行業的大量實際算例的反覆驗證，其解決複雜問題的能力和效率，已得到學術界和工程界的公認。在北美、歐洲和亞洲一些國家的機械、化工、土木、水利、材料、航空、船舶、冶金、汽車、電氣工業設計等許多領域中得到了廣泛的應用。
　　就CAE技術的工業化應用而言，西方發達國家目前已經達到了實用化階段。通過CAE與CAD、CAM等技術的結合，使企業能對現代市場產品的多樣性、複雜性、可*性、經濟性等做出迅速反應，增強了企業的市場競爭能力。在許多行業中，電腦輔助分析已經作為產品設計與製造流程中不可逾越的一種強制性的工藝規範加以實施。如，以國外某大汽車公司為例，絕大多數的汽車零部件設計都必須經過多方面的電腦模擬分析，否則根本通不過設計審查，更談不上試製和投入生產。電腦數值模擬現在已不僅僅作為科學研究的一種手段，在生產實踐中也已作為必備工具普遍應用。
　　2、我國CAE技術現狀
　　隨著我國科學技術現代化水平的提高，電腦輔助工程技術也在我國蓬勃發展起來。科技界和政府的主管部門已經認識到電腦輔助工程技術對提高我國科技水平，增強我國企業的市場競爭能力乃至整個國家的經濟建設都具有重要意義。近年來，我國的CAE技術研究開發和推廣應用在許多行業和領域已取得了一定的成績。但從總體來看，研究和應用的水平還不能說很高，某些方面與發達國家相比仍存在不小的差距。從行業和地區分佈方面來看，發展也還很不平衡。
　　目前，ABAQUS、ANSYS、NASTRAN等大型通用有限元分析軟體已經引進我國，在汽車、航空、機械、材料等許多行業得到了應用，而且我們在某些領域的應用水平並不低。不少大型工程項目也採用了這類軟體進行分析。我國已經擁有一批科技人員在從事CAE技術的研究和應用，取得了不少研究成果和應用經驗，使我們在CAE技術方面緊跟住現代科學技術的發展。但是，這些研究和應用的領域以及分佈的行業和地區還很有限，現在還主要局限於少數具有較強經濟實力的大型企業、部分大學和研究機構。
　　我國的電腦分析軟體開發是一個薄弱環節，嚴重地制約了CAE技術的發展。在CAE分析軟體開發方面，我國目前至少落後於美國等發達國家十年。電腦軟體是高技術和高附加值的商品，目前的國際市場為美國等發達國家所壟斷。僅以有限元計算分析軟體為例，目前的世界年市場份額達5億美元，並且以每年 15%的速度遞增。相比之下，我國自己民族的軟體工業還非常弱小，僅占有很少量的市場份額。作為一個國家，一個民族不能長期依賴於引進外國的技術和產品，因此我們必須加大力度開發自己的電腦分析軟體，只有這樣才能改變在技術上和經濟上受制於人的局面。
　　我國的工業界在CAE技術的應用方面與發達國家相比水平還比較低。大多數的工業企業對CAE技術還處於初步的認同階段，CAE技術的工業化應用還有相當的難度。這是因為，一方面我們缺少自己開發的具有自主知識產權的電腦分析軟體，另一方面大量缺乏掌握CAE技術的科技人員。對於電腦分析軟體問題，目前雖然可以通過技術引進以解燃眉之急，但是，國外的這類分析軟體的價格一般都相當貴，國內不可能有很多企業購買這類軟體來使用。而人才的培養則需要一個長期的過程，這將是對我國CAE技術的推廣應用產生嚴重影響的一個制約因素，而且很難在短期內有明顯的改觀。提高我國工業企業的科學技術水平，將 CAE
　　技術廣泛應用於設計與製造過程還是一項相當艱巨的工作。
　　3、CAE技術展望及對策
　　新的世紀已經來臨，在這信息化和網路化的時代，隨著電腦技術、CAE軟體和網路技術的進步，電腦輔助工程將得到極大的發展。
　　硬體方面，電腦將在高速化、小型化和大容量方面取得更大進步。可以預見，不久的將來PC機將在運行速度和存儲容量方面得到大幅度的提高，使許多CAE分析軟體都能在PC機上運行。這將為CAE技術的普及創造更好的硬體基礎，促進CAE技術的工業化應用。
　　軟體方面，現有的電腦模擬分析軟體將得到進一步的完善。大型通用分析軟體的功能將愈來愈強大，界面也將愈來愈友好，涵蓋的工程領域將愈來愈普遍。同時，適用於某些專門用途的專用分析軟體也將受到重視並被逐步開發完善起來。各行各業都將會具有適於各自領域的電腦模擬分析軟體。
　　網路化時代的到來也將對CAE技術的發展帶來不可估量的促進作用。現在許多大的軟體公司已經採用互聯網對用戶在其分析過程中遇到的困難提供技術支持。隨著互聯網技術的不斷發展和普及，通過網路信息傳遞，不僅對某些技術難題，甚至對於全面的CAE分析過程都有可能得到專家的技術支持，這必將在CAE 技術的推廣應用方面發揮極為重要的作用。
　　中國加入WTO後，我國的產品已不再可能依*政府來保護自己的市場，必須與國際接軌，面對國際市場。工業界必須對市場需求做出迅速反應，縮短工程設計周期，優化產品和節省造價，保證產品質量，才能贏得市場。為此，在產品的設計製造過程中應用CAD、CAE和CAM等技術是最好的選擇，這已經成為國際上科技界和工業界的共識。過去長期沿用的那些靜態的、孤立的、繁雜的、不准確的、甚至有時只能憑經驗進行的設計和分析方法必然將處於被淘汰的地位。我國的工業界要想在激烈的國際市場競爭中占有一席之地，就必須跟上現代科學技術的發展，從現在起就應該對CAE技術予以足夠的重視。
　　作為世界上發展速度最快的一個發展中國家，CAE技術水平的提高將對增強我國工業界的市場競爭能力，發展國民經濟發揮重要作用。因此，我們必須加大對CAE技術的投入，加快開發自己的電腦分析軟體，培養一批掌握CAE技術的人才。針對我國工業界，特別是中小企業的CAE技術還較為落後，缺乏專門人才的實際情況，如何利用飛速發展的互聯網技術將我們的人才和技術資源充分發揮出來為企業服務，是在CAE技術的發展中值得重視的一個問題。我國科技界、教育界和工業界應該攜起手來為CAE技術的研究開發、人才培養和工業化應用而共同努力。

[編輯] 電腦輔助工程案例分析 
[編輯] 案例一:CAE技術在鋼鐵工業中的應用[1] 
　　鋼鐵工業是世界工業化過程中最具成長性的產業之一，長期成為各個工業化國家的重要產業。在我國，雖然整個現代化建設以傳統原材料為基礎的狀況已在發生改變，但鋼鐵仍是基本的結構材料和產量最大的功能材料。鋼鐵工業具有很強的產業關聯性，上游影響交通運輸、採礦、耐火材料等產業，下游影響建築、汽車、造船、金屬製品、機械電子等行業。
　　鋼鐵工業依然是工業化國家最重要的產業部門之一，其發展狀況也是衡量其工業水平和綜合國力的重要指標。
　　世界範圍內鋼鐵工業正面臨著新技術蓬勃發展、結構變革的局面。用高新技術改造傳統鋼鐵工業，加速結構優化，提高市場競爭力，是發展鋼鐵工業的主流趨勢。電腦輔助工程(CAE)技術以其高效率、低成本的優勢在鋼鐵工業中得到了廣泛的應用。通過CAE技術，可以對鋼鐵工業中從冶煉到加工的各個工藝過程進行電腦過程模擬、系統優化、自動控制，採用電腦對生產過程、工藝參數及生產結果進行模擬和對整個系統進行優化，．以實現生產的超前規劃和設計。
　　冶金設備作為冶金技術的載體，本身具有大型、重載、高速、連續、自動化、精密化等特點，而且往往工作在高溫、重載、高粉塵、大衝擊等惡劣條件下，許多性能無法採用實物試驗的方法獲得。近年來，國內外冶金生產中，不斷出現重大設備事故，也都涉及到設備的力學行為。同時，冶金工業的發展對機械設備的性能和使用條件提出了許多新的要求。如近年出現的短流程技術及連鑄連軋技術，這些關鍵技術集中表現為要解決的關鍵結構設計及力學問題，包括強度問題、運動學及動力學問題和傳熱及熱應力問題，也對冶金機械設計研究和開發提出了更高的要求。因此CAE技術在冶金設備的設計研究上也得到了廣泛的應用。
　　一、CAE技術在煉鐵生產及煉鐵機械方面的應用
　　CAE技術目前在煉鐵生產中取得的主要成果有：採用有限元法建立高爐複雜料面及中心裝焦條件下的煤氣流場和壓力場解析模型、高爐固態爐料流場和勢函數解析模型，分析高爐中心裝焦條件下的高爐狀況。利用CAE技術計算分析高爐冷卻水的穩定性、流速、冷卻水管與冷卻壁本體的間隙及冷卻的高度對長壽高效高爐冷卻壁壽命的影響。採用有限元法對高爐爐體結構進行應力分析等。
　　隨著鋼鐵冶煉工藝複雜性的增加，冶煉中溫度、化學能、流體、受力、電力、磁力、振動等多因素的影響越來越重要。因此考慮多個因素，進行多相多態介質耦合與多物理場耦合求解的冶煉過程模擬和分析將成為CAE技術研究和應用的重點。
　　在煉鐵機械設計優化方面，CAE主要發揮作用在於針對上料系統、燒結機、球團造球機、迴轉窯、開鐵口機、液壓泥炮、鑄鐵機等一系列相關設備的力學分析和優化設計，提高了機械設備的效率和壽命，降低了機械的製造成本，在改善噪音和震動方面也發揮了重要作用。
　　二、CAE技術在煉鋼生產及煉鋼設備方面的應用
　　CAE技術目前在煉鋼生產中取得的主要成果有：濺渣護爐狀態下轉爐溫度場的模擬分析；廢鋼預熱電爐內部的溫度場分析；吹氬鋼包內鋼液的流動狀態計算和實際測定；中間包的熱狀態的模擬計算；結晶器內連鑄坯熱彈塑性應力有限元數學模型的建立；連鑄小方坯凝固傳熱與應力分析耦合數學模型的建立；坯殼與結晶器壁問氣隙的大小和分佈有限元分析；結晶器磨損對坯殼凝固行為和力學行為的影響分析；連鑄彎月面區域凝固傳熱有限元模型的建立等。
　　在煉鋼機械設計優化方面，CAE技術主要成果有：大型轉爐爐殼應力分析；大型轉爐托圈機械應力及熱應力分析；通過研究連鑄凝固傳熱過程和結晶器溫度場、應力場等；對拉速、冷卻水流速、銅板厚度、水垢和銅板鍍層等工藝參數進行了優化，並對結晶器、中間包等設備進行了優化。
　　薄板坯連鑄連軋是極具優越性的短流程生產工藝，具有工序少、消耗低、生產率高的特點。近年來科技工作者利用CAE技術對其進行了大量的研究，主要集中在對薄板坯連鑄連軋的熱過程、薄板坯的補償加熱、應變等方面的分析。
　　利用CAE技術對半凝固態加工、液芯軋制等過程也開展了大量的理論研究工作，為生產工藝和設備的優化提供幫助。
　　三、CAE技術在軋鋼生產及軋鋼設備方面的應用
　　目前鋼鐵工業中CAE技術運用最廣泛的領域就是軋鋼生產。軋鋼生產的核心是材料加工過程，而CAE技術將物理冶金、現代材料學與計算力學、數值模擬技術相互結合，使材料加工過程的場變化(應力場、應變場、溫度場)、加工件的尺寸、形狀變化、產品組織性能缺陷等的模擬、模擬和預報成為可能。隨著電腦技術和軟體水平的不斷提高，CAE模擬已成功地代替了大部分軋制物理模擬，人們採用有限元數值模擬技術已成功地對各種軋制過程進行了三維解析與模擬，有效地用於參數優化、產品質量預報和設備設計，判斷變形過程是否可行或合理，並由軋件尺寸形狀預報和力學模擬轉到金屬組織性能預報和控制。
　　CAE技術在軋鋼生產中的應用主要分為以下三個方面：軋制變形過程分析；軋制過程溫度場分析；軋輥等軋鋼機械零件分析等。CAE技術為控制軋鋼過程及成品質量提供了理論依據。其中，大變形彈粘塑性熱力耦合，高剛度軋機及軋輥和軋件的多體耦合解析，特種斷面軋件的軋制過程模擬分析，軋件板型和板厚的精確控制調整等問題仍有待人們運用CAE技術去進行更深一步的探索和研究。
　　CAE技術已成為鋼鐵工業中新工藝和新產品的開發研製、生產工藝優化、設備能力考查和優化設計過程中不可缺少的重要手段。其應用前景也越來越廣。

[編輯] 參考文獻 

↑ 於巨集林.電腦輔助工程在鋼鐵工業中的應用[J].江蘇冶金,2009,(1)



取自"http://wiki.mbalib.com/zh-tw/%E8%AE%A1%E7%AE%97%E6%9C%BA%E8%BE%85%E5%8A%A9%E5%B7%A5%E7%A8%8B"

本條目對我有幫助11  分享到：














   如果您認為本條目還有待完善，需要補充新內容或修改錯誤內容，請編輯條目。

本條目相關文檔
 電腦輔助工程CAE技術簡介 1頁 鑄造工業中的電腦輔助工程技術 6頁 電腦輔助工程（CAE）的現狀和未來 66頁 電腦輔助工程(CAE)發展現狀及其應用綜述 13頁 電腦輔助工程(CAE)發展現狀及其應用綜述 5頁 電腦輔助工程在汽車車身結構設計中的應用 4頁 電腦輔助工程在化工機械中的應用 6頁 2005全國電腦輔助工程_CAE技術 1頁 保險絲延時特性電腦輔助工程分析 5頁 電腦輔助工程在化工機械中的應用 6頁更多相關文檔
本條目由以下用戶參與貢獻
Cabbage,Angle Roh,Zfj3000,Comin,Dan,泡芙小姐,Yixi,連曉霧,河河,KAER,jane409,Gaoshan2013,方小莉,y桑,Lin,寒曦,Tracy. 頁面分類: 生產管理工具 | 信息技術 





評論(共0條)提示:評論內容為網友針對條目"電腦輔助工程"展開的討論，與本站觀點立場無關。
發表評論﻿請文明上網，理性發言並遵守有關規定。




 




導航


首頁
文檔
百科
商學院
資訊
培訓
幫幫




個人工具


用戶登錄創建新帳號 









搜索



 
 

全球最大的中文經管百科，由121,994位網友共同編寫而成，共計414,047個條目








 
首頁
 
管理
 
營銷
 
經濟
 
金融
 
人力資源
 
咨詢
 
財務
 
品牌
 
證券
 
物流
 
貿易
 
商學院
 
法律
 
人物
 
分類索引
 




查看

條目討論編輯簡體中文繁體中文 


工具▼


鏈入頁面
鏈出更改
上載文件 特殊頁面 可列印版
永久鏈接 













導航


最新資訊
最新評論
最新推薦
熱門推薦
編輯實驗
使用幫助
創建條目
隨便看看












本周推薦
最多推薦



影響世界的100個經典管理定律垃圾人定律七層次領導力產品定位五步法樹立和提高威信法MECE分析法吳曉波裙擺指數PPP模式六項精進 

蘑菇管理定律猴子管理法則情緒ABC理論100個最流行的管理辭彙21天效應破窗效應懶螞蟻效應SWOT分析模型墨菲定律踢貓效應 

以上內容根據網友推薦自動排序生成









x



	   最後更改17:56, 2015年11月11日.	  
智庫首頁 - 
百科首頁 - 
關於百科 -
	   客戶端 -
	   人才招聘 -
	   廣告合作 - 
權利通知 -
	   聯繫我們 -
	   免責聲明
 - 友情鏈接

©2006-2017 MBAlib.com, All rights reserved. 


 






國立成功大學 - 課程地圖







    
 


 首頁 







 通識教育課程地圖 






 院系所課程地圖 








意見回饋 ｜ 
  

English ｜ 
  




 1.
        
請選擇學院
其他文學院理學院工學院管理學院醫學院社會科學院電機資訊學院規劃與設計學院生物科學與科技學院 
        2. 
        
請選擇系所
機械系          化工系          資源系          材料系          土木系          水利系          工科系          能源學程        系統系          航太系          環工系          測量系          醫工系          工程管理        機械所          化工所          資源所          材料所          土木所          水利所          工科所          海事所          尖端所          自災所          能源學程        系統所          航太所          環工所          測量所          醫工所          民航所           



 3. 
        
選擇未來發展 - 升學

						電機控制與訊號處理領域                            

						資訊網路領域                                      

						機械工程領域                                      

						生醫光電工程領域                                  


選擇未來發展 - 就業

						各類國家型考試                                    

						電機工程產業                                      

						資訊工程產業                                      

						半導體產業                                        

						機械工程產業                                      

						生技產業                                          

						光電產業                                          






電腦輔助工程分析與設計                  


  	本課程係訓練學生使用當代工程分析的能力. 相關的背景知識為主要講授內容. 利用這些背景知識來建構分析模型為另一半講授內容. 本課程使用ANSYS為練習的平臺.

課程教育目標 

A. 培育專業領域之研究人才B. 養成跨領域整合、分析及協調之能力C. 擴展國際視野與強化自我學習之活力 
課程基本素養與核心能力 

[核心能力]工程領域之專業知識
策劃及執行專題研究之能力
創新思考及獨立解決問題之能力
國際視野
 
近年開課資訊



開課年度
課程碼
分班碼
課程名稱(超連結為課程大綱)
學分數
英語授課
授課教師



0106/1
N970500
1 
 
		  	電腦輔助工程分析與設計                  

3.0
N
李輝煌



0106/1
N970500
 
 
		  	電腦輔助工程分析與設計                  

3.0
N
李輝煌



0105/1
N970500
1 
 
		  	電腦輔助工程分析與設計                  

3.0
N
李輝煌



0104/1
N970500
1 
 
		  	電腦輔助工程分析與設計                  

3.0
N
李輝煌



0104/1
N970500
 
 
		  	電腦輔助工程分析與設計                  

3.0
N
李輝煌



0103/1
N970500
1 
 
		  	電腦輔助工程分析與設計                  

3.0
N
李輝煌



0103/1
N970500
 
 
		  	電腦輔助工程分析與設計                  

3.0
N
李輝煌



0102/1
N970500
1 
 
		  	電腦輔助工程分析與設計                  

3.0
N
李輝煌



0102/1
N970500
 
 
		  	電腦輔助工程分析與設計                  

3.0
N
李輝煌



0101/1
N970500
1 
 
		  	電腦輔助工程分析與設計                  

3.0
N
李輝煌



0101/1
N970500
 
 
		  	電腦輔助工程分析與設計                  

3.0
N
李輝煌



0100/1
N970500
1 
 
		  	電腦輔助工程分析與設計                  

3.0
N
李輝煌



0100/1
N970500
 
 
		  	電腦輔助工程分析與設計                  

3.0
N
李輝煌



0099/1
N970500
1 
 
		  	電腦輔助工程分析與設計                  

3.0
N
李輝煌



0099/1
N970500
 
 
		  	電腦輔助工程分析與設計                  

3.0
N
李輝煌



0098/1
N970500
1 
 
		  	電腦輔助工程分析與設計                  

3.0
N
李輝煌



0098/1
N970500
 
 
		  	電腦輔助工程分析與設計                  

3.0
N
李輝煌







 國立成功大學 |  課程查詢  
701臺南市大學路1號   TEL:  06-2757575#50158  意見回饋信箱: 教務處課務組 em50150@mail.ncku.edu.tw
    國立成功大學 版權所有  © NCKU All Rights Reserved.  計網中心資訊系統發展組 製作















教育目標 - 機械與電腦輔助工程系 






Your browser does not support JavaScript!

Your browser does not support JavaScript!
Your browser does not support JavaScript!
Your browser does not support JavaScript!
Your browser does not support JavaScript!
Your browser does not support JavaScript!














機械與電腦輔助工程系，歡迎您!!!　　恭賀本系蔡忠佑老師升等為 教授 !!




第二屆塑性加工研討會
首頁
虎科大首頁
招生專區
連絡我們
English




Your browser does not support JavaScript!

































分類清單






最新消息
[職缺訊息] 新竹科學園區中德電子研發替代役職缺 !! [該公司重要主管為本繫系友]
校外實習機會（美律、引興、和大、翊太）
[徵才] 上銀科技股份有限公司誠徵技術員及部分工時人員(暑期工讀) !
106年「研究生入學能力考試」，目前正積極招生中，報名日期延至6月20日截止
[學雜費減免] 攜手專班學生106-1學雜費減免於6/5-6/30(下午五點)開始受理申請
[選課] 106學年度第1學期「服務學習（一）」選課須知
[選課] 106學年度第1學期網路選課初選時程公告


單位簡介
主任介紹
歷史沿革
學制現況
系館導覽
教育目標
行政章則


課程介紹
課程規劃
課程表下載
學程資訊


研究實驗室
教學實驗室
教授研究室


單位成員

師資陣容
專任師資
兼任師資

教授
林盛勇 Shen-Yung Lin
李炳寅 Bean-Yin Lee
許坤明 Kum-Ming Hsu
楊東昇 Tung-Shang Yang
謝秋帆 Chiu-Fan Hsieh
蔡忠佑 Chung-Yu Tsai
張銀祐 Yin-Yu Chang


副教授
蘇親儒 Chin-Ru Su
佘振華 Chen-Hua She
林忠志 Chung-Chih Lin
張文陽 Wen-Yang Chang
鄭芳松 Fang-Sung Cheng


助理教授
石煥讓 Hung-Rung Shih
陳進益 Jenn-Yih Chen
王文騰 Wen-Teng Wang
邱薆蕙 Ai-Huei Chiou
陳立緯 Li-Wei Chen
郭晉全 Chin-Chiuan Kuo


行政人員


研究計畫
科技部計畫
產學合作計畫


招生訊息
招生資訊
考古題連結
招生海報


學生資訊
證照資訊
獎助學金


下載專區
教師下載區
學生下載區
行事曆
實驗室下載區


選課地圖
日間部四技課程
進修推廣部四技課程
碩士班課程
碩士在職班課程


教學知識地圖
精密機械設計與製造課程模組
精密模具與成形課程模組
光機電整合與檢測課程模組
CAD/CAE/CAM課程模組

行事曆

系學會
[職缺訊息] 新竹科學園區中德電子研發替代役職缺 !! [該公司重要主管為本繫系友]
校外實習機會（美律、引興、和大、翊太）
[徵才] 上銀科技股份有限公司誠徵技術員及部分工時人員(暑期工讀) !
106年「研究生入學能力考試」，目前正積極招生中，報名日期延至6月20日截止
[選課] 106學年度第1學期「服務學習（一）」選課須知
105-2論文封面顏色為明傳16號(青蘋果綠)，顏色接近即可，不限定明傳影印店喔.
台灣積體電路製造股份有限公司F15A中科厰－助理工程師學期實習活動













































首頁
 > 
單位簡介 
 > 
教育目標 










教育目標
















教育目標

 　　本系所在於培育「理論與實務融合」之產業科技領域專業人才。除加強基礎知識外，特註重學生自我能力之養成、整合創新能力之開發、重視實作與研究發展能力。配合國際與國內重點科技之發展，建構富有創意之精密科技人才同時兼顧外語能力之提昇及通識人文素養之薰陶，以期與國際潮流同步接軌。基於以上理念，訂定系所教育目標。同時為配合教育目標之達成，建立學生核心能力指標，依其特性分別融入適當之課程使學生在學習過程中培養相關的核心能力畢業時具備完整之核心能力訓練。






大學部
進修推廣部
研究所
研究所在職班






大學部教育目標：

		1.  培育學生具有基礎數理及科學分析與應用智能，成為富有潛力之工程
		    科技人才。
		2.  培育精密機械與精密模具等相關領域並能應用電腦輔助工程作設計、
		    分析與製造之工程科技人才。
		3.  培育具有團隊合作與創新思考的工程科技人才。
		4.  培育具有國際視野與終身學習之工程科技人才。

大學部應具備核心能力：


		1.  應用數學、科學及機械工程等相關知識的能力。
		2.  能發掘與分析工程問題，並具解決問題之能力。
		3.  電腦輔助工程應用在精密機械與精密模具相關領域上作設計、分析與
		    製造之能力。
		4.  工程管理相關知識及溝通協調之能力。
		5.  創新思考與跨領域執行工程問題的能力。
		6.  具有熱忱抗壓、專業倫理及社會責任之觀念。
		7.  終身自我學習成長之能力。
		8.  良好的國際觀與外語文之能力。





進修推廣部教育目標：

		1.  培育學生具有基礎數理及科學分析與應用智能，成為富有潛力之工程
		    科技人才。
		2.  培育精密機械與精密模具等相關領域並能應用電腦輔助工程作設計、
		    分析與製造之工程科技人才。
		3.  培育具有團隊合作與創新思考的工程科技人才。
		4.  培育具有國際視野與終身學習之工程科技人才。

進修推廣部應具備核心能力：


		1.  應用數學、科學及機械工程等相關知識的能力。
		2.  能發掘與分析工程問題，並具解決問題之能力。
		3.  電腦輔助工程應用在精密機械與精密模具相關領域上作設計、分析與
		    製造之能力。
		4.  工程管理相關知識及溝通協調之能力。
		5.  創新思考與跨領域執行工程問題的能力。
		6.  具有熱忱抗壓、專業倫理及社會責任之觀念。
		7.  終身自我學習成長之能力。
		8.  國際觀與外語文之能力。





研究所教育目標：

		1.  培育具備專業進階知識之機械工程方面專業科技人才。
		2.  培育具有工程分析設計與實驗能力之專業科技人才。
		3.  培育具有獨立思考、研發創新與領導能力之專業科技人才。
		4.  培育具有國際觀及跨領域研究之科技人才。

研究所應具備核心能力：

		1.  整合機械工程專業知識與技術之能力。
		2.  撰寫技術報告與專業論文之能力。
		3.  應用電腦輔助工程之分析與解決問題之能力。
		4.  執行專題研究與產學計畫之能力。
		5.  創新思考與獨立解決問題之能力。
		6.  具備熱忱抗壓、團隊合作、領導管理與規劃統整之能力。
		7.  跨領域溝通、協調整合之能力。
		8.  掌握國際機械領域發展趨勢與技術接軌之能力。





研究所在職班教育目標：

		1.  培育具備專業知識之機械工程方面之專業在職人員。
		2.  培育具有工程分析設計與實驗能力之專業在職人員。
		3.  培育具有獨立思考、研發創新與領導能力之專業在職人員。
		4.  培育具有國際觀及跨領域研究之在職人員。

研究所在職班應具備核心能力：

		1.  整合機械工程專業知識與技術之能力。
		2.  撰寫技術報告與專業論文之能力。
		3.  應用電腦輔助工程之分析與解決問題之能力。
		4.  執行專題研究之能力。
		5.  創新思考與獨立解決問題之能力。
		6.  具備熱忱抗壓、團隊合作、領導管理與規劃統整之能力。
		7.  跨領域溝通、協調整合之能力。
		8.  掌握國際工程領域知識發展趨勢之能力。



TOP























計算力學實驗室: 電腦輔助工程分析 教學資料 



































































計算力學實驗室




明志科技大學 機械工程系 

























































































2014年11月28日








電腦輔助工程分析 教學資料 






[更新: 2017. 3.]

開課班級 : 明志科技大學 機械系 大三,大四. 
授課教師 : 劉晉奇 
學分數 : 3 (選修) 

課程目標 :  使學生瞭解應力分析與有限元素法的基本理論與實際應用, 且學得ANSYS軟體的應力分析技能, 以做為將來擔任工程師或研究生的基礎. 


上課方式 : 投影片, 講義, 筆記, 電腦軟體操作. 

評分標準 :

Homeworks : 30%
Mid-term exam.: 30%
Final report and presentation : 40% 


課本 :  無指定課本

課程內容, 上課講義(投影片) (PDF) :

Introduction (PDF) 
Getting started with ANSYS (PDF, PDF-a, PDF-b, PDF-c) 
Review of solid mechanics (PDF, PDF-a)    
Introduction to finite element method (PDF, PDF-a) 
Truss elements in ANSYS (5-1 PDF, 5-1 log, 5-2 PDF, 5-2 log, 5-3 PDF) 
Beam and frame elements in ANSYS (6-1 PDF, 6-1 log, 6-2 PDF, 6-2 log, 6-3 PDF, 6-3 log, 6-4 PDF, 6-4 log )       
Geometric modeling and meshing in ANSYS (7-1 PDF, 7-2 PDF , 7-3 PDF , 7-3-CAD-1.zip , 7-3-CAD-2.zip , 7-3-CAD-3.zip) 
Two-dimensional plane elements in ANSYS (8-1 PDF , 8-1-log.zip , 8-2 PDF , 8-2-log.zip,  8-3 PDF , 8-3-log.zip )    
Three-dimensional solid elements in ANSYS (9-1 PDF , 9-1-CAD.zip , 9-2 PDF, 9-2-CAD2.zip, 9-2-log.zip) 
ANSYS Workbench (PDF-1, PDF-2) (CADMEN/TADC)  
Final reports and presentations (template) 


參考書目 : 

劉晉奇, 褚晴暉. 有限元素分析與 ANSYS 的工程應用. 滄海, 2006.   (LINK) 
劉晉奇. 電腦輔助工程分析入門：ANSYS 速學. 五南, 2009.   (LINK)
康淵, 陳信吉. ANSYS 入門. 全華, 2004.  (附ANSYS/ED教育版軟體) 
T.R. Chandrupatla, A.D. Belegundu. Introduction to Finite Elements in Engineering. Prentice-Hall, 1991. 
S. Moaveni. Finite Element Analysis – Theory and Application with ANSYS. Second edition, Prentice Hall, 2003.


其他重要參考書籍 : 

D.L. Logan. A First Course in the Finite Element Method. Second edition, PWS-KENT, 1992. 
R.D. Cook, D.S. Malkus and M.E. Plesha. Concepts and Applications of Finite Element Analysis. Third edition, John Wiley & Sons, 1989. 
李輝煌. ANSYS 工程分析 - 基礎與觀念. 高立, 2005. 
王栢村. 電腦輔助工程分析之實務與應用. 全華, 2001. 
陳精一, 蔡國忠. 電腦輔助工程分析 – ANSYS 使用指南. 全華, 2000. 
S. Moaveni 原著, 陳新鬱, 林政仁譯. 有限元素分析 – 理論與應用ANSYS. 高立, 2001.













張貼者：



jinchee




於

11/28/2014















以電子郵件傳送這篇文章BlogThis！分享至 Twitter分享至 Facebook分享到 Pinterest




標籤：
教材










沒有留言:







張貼留言

















較新的文章


較舊的文章

首頁




訂閱：
張貼留言 (Atom)
















Link


計算力學實驗室簡介 
劉晉奇老師學經歷簡介
劉晉奇老師著作
學術會議訊息
教書生涯雜記 jinchee's blog












教材連結


車輛元件設計分析
電腦輔助工程分析
機械工程實驗(一) : 固力實驗
電腦輔助車輛結構分析
電腦輔助熱傳分析
有限元素分析與應用 
有限元素法 
科技論文寫作












參訪者統計 (自2009.7.28.起)














本著作由劉晉奇製作，以創用CC 姓名標示-非商業性-禁止改作 3.0 台灣 授權條款釋出。












關於我自己




jinchee



檢視我的完整簡介











標籤



教材
(8)


介紹
(3)


訊息
(2)













網誌存檔








        ► 
      



2016

(1)





        ► 
      



一月

(1)









        ► 
      



2015

(2)





        ► 
      



十月

(2)









        ▼ 
      



2014

(10)





        ► 
      



十二月

(6)







        ▼ 
      



十一月

(4)

電腦輔助工程分析 教學資料
劉晉奇老師著作
計算力學實驗室簡介
劉晉奇老師學經歷簡介



















































電腦輔助設計 - 維基百科，自由的百科全書































 







電腦輔助設計

維基百科，自由的百科全書


					前往：					導覽，					搜尋







本條目存在以下問題，請協助改善本條目或在討論頁針對議題發表看法。






本條目需要編修，以確保文法、用詞、語氣、格式、標點等使用恰當。（2016年10月6日） 
請按照校對指引，幫助編輯這個條目。（幫助、討論） 







導言部分也許過於冗長。（2016年10月6日） 
遵從維基百科的格式準則，請考慮加入不同章節或精簡首段來提供一個無障礙概述文章的要點。 







本條目沒有列出任何參考或來源。（2016年10月6日） 
維基百科所有的內容都應該可供查證。請協助添加來自可靠來源的引用以改善這篇條目。無法查證的內容可能被提出異議而移除。 

















典型CAD繪製的滑鼠


電腦輔助設計（英語：Computer Aided Design, CAD）是指運用電腦軟體製作並模擬實物設計，展現新開發商品的外型、結構、色彩、質感等特色的過程。隨著技術的不斷發展電腦輔助設計不僅僅適用於工業，還被廣泛運用於平面印刷出版等諸多領域。它同時涉及到軟體和專用的硬體。
CAD有時也寫作「computer-assisted」、「computer-aided drafting」，或類似的表達方式。相關的縮略語有CADD，表示電腦輔助設計和草圖（computer-aided design and drafting），以及CAAD，表示電腦輔助建築設計（computer-aided architectural design）。所有這些術語基本上同義，都指使用電腦而不是傳統的繪圖板來進行各種專案的設計和工程製圖。通常由CAD建立的建築和工程專案的範圍很廣，包括建築設計製圖，機械製圖，電路圖，和其他各種形式的設計交流方式。現在，它們都成為電腦輔助設計更廣泛的定義的一部分。
設計者很早就開始使用電腦進行計算。有人認為Ivan Sutherland在1963年在麻省理工學院開發的Sketchpad是一個轉折點。SKETCHPAD的突出特性是它允許設計者用圖形方式和電腦互動：設計可以用一枝光筆在陰極射線管螢幕上繪製到電腦裡。實際上，這就是圖形化使用者介面的原型，而這種介面是現代CAD不可或缺的特性。
CAD最早的應用是在汽車製造、航空航天以及電子工業的大公司中。隨著電腦變得更便宜，應用範圍也逐漸變廣。




電子設計自動化軟體


CAD的實現技術從那個時候起經過了許多演變。這個領域剛開始的時候主要被用於產生和手繪的圖紙相仿的圖紙。電腦技術的發展使得電腦在設計活動中有更有技巧的應用。現今，CAD已經不僅僅用於繪圖和顯示，它開始進入設計者的專業知識中更「智慧型」的部分。
隨著電腦科技的日益發展，效能的提升和更便宜的價格，許多公司已採用立體的繪圖設計。以往，礙於電腦效能的限制，繪圖軟體只能停留在平面設計，欠了真實感。而立體繪圖則衝破了這限制，令設計藍圖更實體化。
現代CAD系統的功能包括：

設計元件重用（Reuse of design components）
簡易的設計修改和版本控制功能（Ease of design modification and versioning）
設計的標準元件的自動產生（Automatic generation of standard components of the design）
設計是否滿足要求和實際規則的檢驗（Validation/verification of designs against specifications and design rules）
無需建立物理原型的設計模擬（Simulation of designs without building a physical prototype）
裝配件（一堆零件或者其他裝配件）的自動設計
工程文件的輸出，例如製造圖紙，材料明細表（Bill of Materials）
設計到生產裝置的直接輸出
到快速原型或快速製造工業原型的機器的直接輸出

CAD的發展導致了下列工具和方法的發展：

線框模型
實體造型
智慧型布線圖和生產關聯資料庫（Intelligent wiring diagrams and production linked database systems）
圖形表達系統和工廠圖紙和資料庫（Graphically represented system or plant diagrams and databases）
參數化設計模型（Parametric design models）
實時行程模擬（Real-time process simulation）
電腦數控（Computer Numerically Controlled（CNC））載入檔案（工具路徑指令）
有限元分析
快速原型法（Rapid prototyping）

很多CAD圖紙是用應用軟體通過設計草圖和其他輸入從頭開始建立的。其他CAD圖紙是從原有的電子CAD檔案，通過複製全部或部分另一個CAD檔案，經過改動，然後另存為新檔案得到。只有物理形式存在的圖紙（藍圖，遺失檔案的設計圖，等等）可以用一種「紙到CAD轉換的」（圖紙轉換，數位化，向量化）的程式來轉為CAD檔案。
參看[編輯]

繪畫
幾何拓撲學
資訊可視化
電腦輔助工程（Computer-Aided Engineering,CAE）
電腦自動設計
電腦輔助製造（
電腦輔助建築設計
電腦圖形學
快速成型技術
電子設計自動化
CAD公司列表
新產品開發
紙到CAD的轉換
Pierre Bézier
建築資訊模型

外部連結[編輯]


您可以在維基教科書中尋找此百科條目的相關電子教程：
CAD



Design Council on Computer Aided Design Design Council one stop shop information resource on CAD by Paul Siodmok.
CAE includes FEA
CAD Systems in Education List of CAD systems developed in Universities for educational and commercial use.
tools 4 CAD - CAD resource site including tips, tricks and products
3D model of a cylinder cover, interactiv（Acrobat Reader 8.1 or higher）









閱
論
編


CAD軟體






自由和開源




機械



BRL-CAD（英語：BRL-CAD）
FreeCAD（英語：FreeCAD）
HeeksCAD（英語：HeeksCAD）
LibreCAD
Open Cascade Technology（英語：Open Cascade Technology）
OpenSCAD（英語：OpenSCAD）
QCad
Salome（英語：Salome (software)）
SolveSpace（英語：SolveSpace）








電子



Electric（英語：Electric (software)）
Fritzing（英語：Fritzing）
gEDA（英語：gEDA）
KiCad
kTechLab（英語：kTechLab）
Magic（英語：Magic (software)）
Oregano（英語：Oregano (software)）
QUCS（英語：Quite Universal Circuit Simulator）
XCircuit（英語：XCircuit）











專有軟體




機械



AutoCAD
Autodesk Alias（英語：Autodesk Alias）
Autodesk Inventor（英語：Autodesk Inventor）
Autodesk Revit（英語：Autodesk Revit）
ArchiCAD
Bricscad（英語：Bricscad）
nanoCAD Plus（英語：nanoCAD）
CADKEY
CATIA
Cimatron（英語：Cimatron）
DesignSpark Mechanical（英語：DesignSpark Mechanical）
Creo Parametric
FastCAD（英語：FastCAD）
FORAN（英語：FORAN System）
GstarCAD（英語：GstarCAD）
IRONCAD（英語：IRONCAD）
KeyCreator（英語：KeyCreator）
MEDUSA（英語：MEDUSA）
MicroStation（英語：MicroStation）
nanoCAD（英語：nanoCAD）
Onshape（英語：Onshape）
NX (軟體)
PDMS（英語：PDMS (software)）
Pro/DESKTOP（英語：Pro/DESKTOP）
progeCAD（英語：progeCAD）
Rhinoceros 3D

Grasshopper 3D（英語：Grasshopper 3D）


RUCAPS（英語：RUCAPS）
Solid Edge
SolidWorks
SpaceClaim（英語：SpaceClaim）
T-FLEX CAD（英語：T-FLEX CAD）
TurboCAD（英語：TurboCAD）
VariCAD（英語：VariCAD）
Vectorworks（英語：Vectorworks）
FINE MEP（英語：FINE MEP）








電子



AutoCAD Electrical
Altium designer
EAGLE（英語：EAGLE (program)）
NI Multisim
NI Ultiboard（英語：NI Ultiboard）
OrCAD
SolidWorks Electrical
TopoR（英語：TopoR）
Zuken CADSTAR（英語：CADSTAR）











檔案格式



3MF（英語：3D Manufacturing Format）
ACIS
AMF（英語：Additive Manufacturing File Format）
C3D（英語：C3D#C3D file format）
CKD（英語：KeyCreator）
DWF（英語：Design Web Format）
DWFX
DWG
DXF
IGES（英語：IGES）
OBJ（英語：Wavefront .obj file）
OpenDWG（英語：Open Design Alliance）
PLY
PSpice（英語：PSpice circuit file）
STEP
STL








建模內核（英語：Geometric modeling kernel）



ACIS
C3D（英語：C3D）
Open CASCADE Technology（英語：Open CASCADE Technology）
Parasolid（英語：Parasolid）
RGK（英語：Russian Geometric Kernel）
Romulus（英語：Romulus (modelling kernel)）
KernelCAD（英語：KernelCAD）
ShapeManager（英語：ShapeManager）
Teigha（英語：Teigha）
IntelliCAD（英語：IntelliCAD）
















閱
論
編


數字電路






概念

數位訊號 · 布林代數 · 開關 · 組合邏輯電路 · 時序邏輯電路（同步 · 異步） · 真值表 · 卡諾圖 · 有限狀態機（米利機 · 摩爾機）






硬體模組

邏輯閘（與 · 或 · 非 · 同 · 與非 · 或非 · 異或 · 同或 · 蘊含） · TTL · CMOS · 加法器 · 乘法器 · 編碼器 · 解碼器 · 資料選擇器 · 鎖存器 · 暫存器 · 觸發器（D · T · RS · JK） · 儲存裝置（ROM · RAM） · 類比數位轉換器 · 數位類比轉換器






IC、VLSI

客製程度（半、全）、PLD（PAL · PLA · GAL · CPLD · FPGA） · ASIC · 設計 · 驗證 · 電子設計自動化 · 硬體描述語言（Verilog · VHDL） · 邏輯綜合 · 硬體驗證語言（SystemVerilog）














閱
論
編


金屬加工













閱
論
編


機械加工和計算






電腦輔助工程



2.5D（英語：2.5D (machining)）
電腦輔助設計（CAD）
電腦輔助製造（CAM）
G代碼
數值控制工具機
斯圖爾特平臺（英語：Stewart platform）








鑽孔和攻絲



Die head（英語：Die head）
電鑽
鑽頭
Drill bit shank（英語：Drill bit shank）
鑽頭大小
鑽孔
List of drill and tap sizes（英語：List of drill and tap sizes）
絲攻和絲板
Tap wrench（英語：Tap wrench）
Threading（英語：Threading (manufacturing)）








磨削和研磨



Abrasive（英語：Abrasive）
Angle grinder（英語：Angle grinder）
桌上型砂輪機
Coated abrasive（英語：Coated abrasive）s
Cylindrical grinder（英語：Cylindrical grinder）
Diamond plate（英語：Diamond plate）
Flick grinder（英語：Flick grinder）
Grinding
Grinding dresser（英語：Grinding dresser）
磨床
砂輪
Jig grinder（英語：Jig grinder）
Lapping（英語：Lapping）
Sanding
磨刀石
Spark testing（英語：Spark testing）
Surface grinder（英語：Surface grinding）
Tool and cutter grinder（英語：Tool and cutter grinder）








機械加工



Boring（英語：Boring (manufacturing)）
Broaching（英語：Broaching (metalworking)）
電火花加工
電化學加工
Electron beam machining（英語：Electron beam machining）
Endmill（英語：Endmill）
Engraving（英語：Engraving）
Facing（英語：Facing (machining)）
Hobbing（英語：Hobbing）
Jig borer（英語：Jig borer）
工具機
機械加工
車床
銑刀
銑床
Pantograph（英語：Pantograph）
Photochemical machining（英語：Photochemical machining）
Planer（英語：Planer (metalworking)）
絞刀
旋轉傳送機（英語：Rotary transfer machine）
Shaper（英語：Shaper）
車削（英語：Turning）
超聲波加工（英語：Ultrasonic machining）








工具機



Angle plate（英語：Angle plate）
卡盤
筒夾
Fixture（英語：Fixture (tool)）
Indexing head（英語：Indexing head）
治具
Lathe center
Machine taper（英語：Machine taper）
磁性底座
頂桿（英語：Mandrel）
迴轉工作檯（英語：Rotary table）
Wiggler（英語：Wiggler (tool)）








術語



切削液
加工振動（英語：Machining vibrations）
Speeds and feeds（英語：Speeds and feeds）
切屑（英語：Swarf）
公差
工具和模具製造（英語：Tool and die maker）
Tramp oil














鑄造
金屬製造（英語：Metal fabrication）
成型過程（英語：Forming processes）
珠寶
機械加工
冶金學
鍛造（英語：Metalsmith）
工具和術語（英語：Outline of metalworking）
焊接













權威控制



LCCN: sh85029476
NDL: 00575531












 
						取自 "https://zh.wikipedia.org/w/index.php?title=計算機輔助設計&oldid=42040831"					
分類：計算機輔助設計隱藏分類：自2016年10月需要校對的頁面自2016年10月導言部分過長的條目自2016年10月缺少來源的條目含有多個問題的條目包含規範控制信息的維基百科條目 



導覽選單


個人工具

沒有登入對話貢獻建立帳號登入 



命名空間

條目
討論




台灣正體



不轉換
簡體
繁體
大陸簡體
香港繁體
澳門繁體
馬新簡體
台灣正體






查看

閱讀
編輯
檢視歷史



更多







搜尋



 







導航


首頁分類索引特色內容新聞動態近期變更隨機條目 



說明


說明維基社群方針與指引互助客棧知識問答字詞轉換IRC即時聊天聯絡我們關於維基百科資助維基百科 



其他專案


維基共享資源維基教科書 



列印/匯出


下載成 PDF 



工具


連結至此的頁面相關變更上傳檔案特殊頁面可列印版靜態連結頁面資訊維基數據 項目引用此頁面 



其他語言


AfrikaansالعربيةAzərbaycancaБългарскиBosanskiCatalàČeštinaDanskDeutschEnglishEspañolEestiفارسیSuomiFrançaisGalegoעבריתहिन्दीHrvatskiMagyarՀայերենBahasa IndonesiaItaliano日本語Қазақшаಕನ್ನಡ한국어LatviešuМонголBahasa MelayuNederlandsNorsk bokmålPolskiPortuguêsRomânăРусскийSlovenčinaSlovenščinaSvenskaதமிழ்తెలుగుTürkçeУкраїнськаTiếng Việt 
編輯連結 





 本頁面最後修訂於2016年11月4日 (週五) 07:21。
本站的全部文字在創用CC 姓名標示-相同方式分享 3.0 協議之條款下提供，附加條款亦可能應用（請參閱使用條款）。
Wikipedia®和維基百科標誌是維基媒體基金會的註冊商標；維基™是維基媒體基金會的商標。
維基媒體基金會是在美國佛羅里達州登記的501(c)(3)免稅、非營利、慈善機構。


隱私政策
關於維基百科
免責聲明
開發人員
Cookie 聲明
手機版檢視



 

 








逢甲大學-機械與電腦輔助工程學系全球資訊網-學程介紹-「工程設計系統與產業實務應用」學程






















































:::

迴首頁


網站地圖


工學院


逢甲大學


English












區塊標題


系所介紹


機電繫系史


學系特色


系主任


系辦公室成員


各委員會




最新公告


最新消息


重要訊息




招生入學


學士班


碩士班


碩專班


博士班


國際交流


大陸招生


高中生Q&A


逢甲大學招生組




系所師資


師資介紹


各組師資介紹


教師辦公室及電子信箱


機電系辦及教師研究室一覽表




教學卓越


課程規劃


課程介紹


各年級課程科目表


大學課程配當


碩班課程配當表


博班課程配當表




修課規定


課程相關表單下載


課程地圖


學程介紹


逢甲大學選課地圖




設施介紹


師生互動環境


設備及學習環境


資訊設備教學環境


教師研究室


教學實驗室




國際交流


國際交流計畫


國際姐妹學校


國際交流獎助




獎助學金


產學合作


校外實習


科技人才培育方案




獎助學金


國際交流獎助




系友園地


其他服務


快速鍵說明


法規查詢


學生手冊


贈予逢甲


相關連結





TAB標籤效果，如不執行不影響您資料瀏覽





:::




Menu



課程介紹


各年級課程科目表


修課規定


課程相關表單下載


課程地圖


學程介紹


逢甲大學選課地圖


　





:::




現在位置：首頁
				>
				課程規劃
				>
				學程介紹




回上一頁
當script無法執行時可按"alt + ←"鍵替代






學程介紹

「工程設計系統與產業實務應用」學程

點閱：1278

		　

推到：











 
工程設計系統與產業實務應用學分學程課程表
 
核心課程





科目名稱


學分


開課單位




創意設計與工程實作


3


學程、機電系




系統工程方法


3


學程、航太系




產業實習


3


學程、工工系




共通核心職能


1


學程





 
選修課程（電腦整合設計領域）





科目名稱


學分


開課單位




電腦輔助立體繪圖


2


機電系




電腦輔助設計


2


機電系




電腦輔助製造


3


機電系




電腦輔助工程分析 - ANSYS


3


機電系




電腦輔助工程分析 - UG


2


機電系




電腦輔助機構分析


3


機電系




電腦輔助設計 - PRO/E


3


機電系




資料庫設計


3


工工系




應用程式設計


3


工工系




模擬學


3


工工系




電腦三維模型建構 - PRO/E


3


航太系




電腦輔助工程 - NASTRAN


3


航太系




電腦輔助機構分析 - ADAMS


3


航太系




電腦輔助工程 - CATIA


2


航太系




電腦輔助工程 - SolidWorks


3


航太系




電腦輔助工程 - ANSYS(一)


3


航太系





 
選修課程（系統與自動化領域）





科目名稱


學分


開課單位




控制系統(一)


3


機電系




控制系統(二)


3


機電系




機電整合(含實驗)


3


機電系




液壓及氣動力工程


3


機電系




自動化機械


3


機電系




機械人導論


3


機電系




製造自動化導論


3


機電系




自動生產系統


3


工工系




製造系統工程


3


工工系




工業自動化


3


工工系




系統工程


3


工工系




線性控制系統(一)


3


航太系




線性控制系統(二)


3


航太系




機電系統分析與模擬


3


航太系




數位控制


3


航太系





 
選修課程（產業實務應用領域）





科目名稱


學分


開課單位




機械製造(一)


2


機電系




機械製造(二)


2


機電系




新製造技術


2


機電系




熱處理與製程自動化


2


機電系




工廠實務講座


2


機電系




製造技術專題


3


工工系




製造程序


3


工工系




生產計劃與管制


3


工工系




品質管制


3


工工系




整合製造管理


3


工工系




飛具設計(一)


2


航太系




飛具設計(二)


2


航太系




皮米衛星系統工程


3


航太系




新時代設計之整體解決方案


2


學程




電腦輔助五軸加工實務


3


學程





 
 
 

TAB標籤效果，如不執行不影響您資料瀏覽









回頁首


回上一頁
當script無法執行時可按"alt + ←"鍵替代

lp.xsl:CaptionLP,cp.xsl:




















			　
版權所有©逢甲大學全球資訊系統內之所有內容及版面設計－著作權屬逢甲大學
問題反應或建議 mcae@fcu.edu.tw 連絡電話 04-24517250 轉 3501
臺中市 40724 西屯區文華路100號「隱私權聲明」
瀏覽人次1905829

更新日期2017年07月20日





TAB標籤效果，如不執行不影響您資料瀏覽


